@<TRIPOS>MOLECULE
ACE
   22    21     1     0     0
SMALL
No Charge or Current Charge


@<TRIPOS>ATOM
      1 HH31        2.0000    1.0000   -0.0000 H         1 ACE      0.000000
      2 CH3         2.0000    2.0900    0.0000 C.3       1 ACE      0.000000
      3 HH32        1.4860    2.4540    0.8900 H         1 ACE      0.000000
      4 HH33        1.4860    2.4540   -0.8900 H         1 ACE      0.000000
      5 C           3.4270    2.6410   -0.0000 C.2       1 ACE      0.000000
      6 O           4.3910    1.8770   -0.0000 O.2       1 ACE      0.000000
      7 N           3.5550    3.9700   -0.0000 N.am      2 ALA      0.000000
      8 H           2.7330    4.5560   -0.0000 H         2 ALA      0.000000
      9 CA          4.8530    4.6140   -0.0000 C.3       2 ALA      0.000000
     10 HA          5.5752    3.9790    0.5140 H         2 ALA      0.000000
     11 CB          5.3449    4.8582   -1.4225 C.3       2 ALA      0.000000
     12 HB1         4.6373    5.4999   -1.9472 H         2 ALA      0.000000
     13 HB2         6.3206    5.3427   -1.3923 H         2 ALA      0.000000
     14 HB3         5.4293    3.9062   -1.9469 H         2 ALA      0.000000
     15 C           4.7975    5.9587    0.7097 C.2       2 ALA      0.000000
     16 O           5.0101    6.0359    1.9179 O.2       2 ALA      0.000000
     17 N           4.5105    7.0222   -0.0444 N.am      3 NME      0.000000
     18 H           4.3434    6.9086   -1.0341 H         3 NME      0.000000
     19 CH3         4.4283    8.3571    0.5131 C.3       3 NME      0.000000
     20 HH31        4.6314    8.3180    1.5829 H         3 NME      0.000000
     21 HH32        5.1627    9.0003    0.0276 H         3 NME      0.000000
     22 HH33        3.4285    8.7596    0.3482 H         3 NME      0.000000
@<TRIPOS>BOND
     1    1    2 1   
     2    2    3 1   
     3    2    4 1   
     4    2    5 1   
     5    5    6 2   
     6    5    7 1   
     7    7    8 1   
     8    7    9 1   
     9    9   10 1   
    10    9   11 1   
    11    9   15 1   
    12   11   12 1   
    13   11   13 1   
    14   11   14 1   
    15   15   16 2   
    16   15   17 1   
    17   17   18 1   
    18   17   19 1   
    19   19   20 1   
    20   19   21 1   
    21   19   22 1   
@<TRIPOS>SUBSTRUCTURE
     1 ACE         1 TEMP              0 ****  ****    0 ROOT
